<?xml version="1.0" encoding="UTF-8"?>

<!-- generated on 05/29/21 17:39:29 by Eclipse SUMO netconvert Version 1.7.0
<configuration xmlns:xsi="http://www.w3.org/2001/XMLSchema-instance" xsi:noNamespaceSchemaLocation="http://sumo.dlr.de/xsd/netconvertConfiguration.xsd">

    <input>
        <osm-files value="map.osm"/>
    </input>

    <output>
        <output-file value="Carrefour.net.xml"/>
        <plain-output-prefix value="true"/>
    </output>

    <projection>
        <proj.utm value="true"/>
    </projection>

    <processing>
        <geometry.remove value="true"/>
    </processing>

    <tls_building>
        <tls.discard-simple value="true"/>
        <tls.join value="true"/>
        <tls.guess-signals value="true"/>
        <tls.default-type value="static"/>
    </tls_building>

    <ramp_guessing>
        <ramps.guess value="true"/>
    </ramp_guessing>

    <edge_removal>
        <keep-edges.by-vclass value="passenger"/>
    </edge_removal>

    <junctions>
        <junctions.join value="true"/>
    </junctions>

    <report>
        <aggregate-warnings value="5"/>
    </report>

</configuration>
-->

<edges version="1.6" xmlns:xsi="http://www.w3.org/2001/XMLSchema-instance" xsi:noNamespaceSchemaLocation="http://sumo.dlr.de/xsd/edges_file.xsd">
    <edge id="-105940431#11" from="21346784" to="158834270" priority="11" type="highway.secondary" numLanes="1" speed="13.89" shape="116.35,1027.07 122.69,1020.85 125.13,1018.46 126.43,1016.86 129.07,1014.27 179.81,964.83 197.45,947.53 202.84,942.25 227.45,918.11 233.94,911.76 246.35,899.58 260.75,885.46 268.92,877.45 282.18,864.44 286.31,860.39 295.61,851.28 305.45,841.63" disallow="tram rail_urban rail rail_electric rail_fast ship"/>
    <edge id="-105940431#2" from="94267106" to="470173" priority="11" type="highway.secondary" numLanes="1" speed="13.89" shape="443.07,702.58 449.37,697.02 463.97,683.24 481.03,666.39 490.64,660.04" disallow="tram rail_urban rail rail_electric rail_fast ship"/>
    <edge id="-105940431#4" from="cluster_249578857_94267505" to="94267106" priority="11" type="highway.secondary" numLanes="1" speed="13.89" shape="376.48,771.98 378.31,770.17 438.73,707.10 443.07,702.58" disallow="tram rail_urban rail rail_electric rail_fast ship"/>
    <edge id="-105940431#7" from="158834270" to="cluster_249578857_94267505" priority="11" type="highway.secondary" numLanes="1" speed="13.89" shape="305.45,841.63 360.73,787.41 365.58,782.66" disallow="tram rail_urban rail rail_electric rail_fast ship"/>
    <edge id="-10665066#1" from="94270578" to="8384493811" priority="10" type="highway.tertiary" numLanes="2" speed="13.89" shape="810.83,202.83 807.89,198.37 806.26,195.91 802.43,190.24" disallow="tram rail_urban rail rail_electric rail_fast ship"/>
    <edge id="-10665122" from="94260793" to="25287818" priority="3" type="highway.residential" numLanes="1" speed="13.89" shape="1076.87,392.86 1072.78,388.86 1067.99,384.18 1051.55,368.07 982.51,300.18 976.65,294.98" disallow="tram rail_urban rail rail_electric rail_fast ship"/>
    <edge id="-110528888#2" from="470171" to="65311769" priority="3" type="highway.residential" numLanes="1" speed="13.89" shape="873.19,639.19 898.07,641.70 907.83,642.69 923.62,644.28 938.73,645.81" disallow="tram rail_urban rail rail_electric rail_fast ship"/>
    <edge id="-12716239#2" from="116147982" to="116147990" priority="3" type="highway.residential" numLanes="1" speed="13.89" shape="848.12,614.48 846.20,592.51 843.11,558.47 841.91,547.53" disallow="tram rail_urban rail rail_electric rail_fast ship"/>
    <edge id="-15220512#3" from="3121926075" to="3278371062" priority="11" type="highway.secondary" numLanes="1" speed="8.33" shape="520.40,288.01 509.44,286.54 498.22,284.85 493.63,284.05 489.22,283.29 476.32,281.05 396.02,264.64 277.13,239.49 267.86,237.51 257.94,235.82 247.29,233.76 235.39,231.31 160.44,215.84 139.75,211.57 135.31,210.07 121.71,206.06" disallow="tram rail_urban rail rail_electric rail_fast ship"/>
    <edge id="-16809466" from="94267986" to="94267985" priority="3" type="highway.residential" numLanes="1" speed="8.33" shape="392.39,555.32 384.15,563.80 348.91,600.05 344.55,604.55" disallow="tram rail_urban rail rail_electric rail_fast ship"/>
    <edge id="-16809868" from="94266791" to="94266440" priority="3" type="highway.residential" numLanes="1" speed="13.89" shape="573.53,586.70 565.61,578.40 513.08,525.35 504.00,517.89" disallow="tram rail_urban rail rail_electric rail_fast ship"/>
    <edge id="-19712799" from="6483852059" to="94267653" priority="3" type="highway.residential" numLanes="1" speed="13.89" shape="439.80,857.44 415.78,833.41 409.73,827.36" disallow="tram rail_urban rail rail_electric rail_fast ship"/>
    <edge id="-247516253" from="2543366541" to="311060931" priority="3" type="highway.residential" numLanes="1" speed="13.89" shape="402.21,443.63 374.80,414.22 368.32,401.54 365.13,394.40" disallow="tram rail_urban rail rail_electric rail_fast ship"/>
    <edge id="-264881744#1" from="470172" to="116147905" priority="10" type="highway.tertiary" numLanes="1" speed="13.89" shape="698.46,462.46 705.71,469.67 711.22,475.15 800.16,563.78 808.16,572.59" disallow="tram rail_urban rail rail_electric rail_fast ship"/>
    <edge id="-299518564#1" from="258311984" to="3731959193" priority="10" type="highway.tertiary" numLanes="1" speed="13.89" shape="568.47,12.54 567.02,22.32 563.41,47.72 560.82,69.26 556.27,107.03 555.20,115.93 552.51,136.68 550.98,149.80 543.89,211.27 543.65,212.70 538.84,249.86 538.53,253.68 536.88,265.97 535.82,276.25" disallow="tram rail_urban rail rail_electric rail_fast ship"/>
    <edge id="-30613135#2" from="116147966" to="cluster_130096418_130096486_470170" priority="3" type="highway.residential" numLanes="1" speed="13.89" shape="922.92,565.89 930.73,557.73 945.39,542.57 987.58,498.92 994.50,491.76 1002.43,483.44" disallow="tram rail_urban rail rail_electric rail_fast ship"/>
    <edge id="-30613136#1" from="65311769" to="65311768" priority="3" type="highway.residential" numLanes="1" speed="13.89" shape="938.73,645.81 952.70,647.57 964.87,649.11 1105.12,666.80 1108.01,667.17 1113.98,667.92 1129.50,669.88" disallow="tram rail_urban rail rail_electric rail_fast ship"/>
    <edge id="-330440863#0" from="94260214" to="94270578" priority="10" type="highway.tertiary" numLanes="2" speed="13.89" shape="871.76,291.71 861.55,276.74 851.17,261.60 810.83,202.83" disallow="tram rail_urban rail rail_electric rail_fast ship"/>
    <edge id="-330440863#1" from="244455594" to="94260214" priority="10" type="highway.tertiary" numLanes="2" speed="13.89" shape="917.74,359.17 881.05,305.33 871.76,291.71" disallow="tram rail_urban rail rail_electric rail_fast ship"/>
    <edge id="-330440863#3" from="cluster_130096418_130096486_470170" to="244455594" priority="10" type="highway.tertiary" numLanes="2" speed="13.89" shape="995.49,473.24 992.95,469.52 986.05,459.40 917.74,359.17" disallow="tram rail_urban rail rail_electric rail_fast ship"/>
    <edge id="-330440863#9" from="65311768" to="cluster_130096418_130096486_470170" priority="10" type="highway.tertiary" numLanes="2" speed="13.89" shape="1129.50,669.88 1116.82,651.27 1115.40,649.19 1114.26,647.66 1091.65,614.35 1041.69,541.04 1015.65,502.83 1013.93,500.30 1011.25,496.38" disallow="tram rail_urban rail rail_electric rail_fast ship"/>
    <edge id="-369430658#1" from="174042261" to="116147966" priority="3" type="highway.residential" numLanes="1" speed="13.89" shape="880.87,605.53 915.51,572.88 922.92,565.89" disallow="tram rail_urban rail rail_electric rail_fast ship"/>
    <edge id="-386720789" from="174026196" to="431487272" priority="10" type="highway.tertiary" numLanes="1" speed="13.89" shape="601.16,362.53 595.30,356.47 578.46,339.09 562.06,322.47" disallow="tram rail_urban rail rail_electric rail_fast ship"/>
    <edge id="-51260154#0" from="94266789" to="470173" priority="11" type="highway.secondary" numLanes="1" speed="8.33" shape="421.87,585.24 427.11,590.66 457.31,620.79 477.13,641.23 490.64,660.04" disallow="tram rail_urban rail rail_electric rail_fast ship"/>
    <edge id="-51260154#1" from="94267986" to="94266789" priority="11" type="highway.secondary" numLanes="1" speed="8.33" disallow="tram rail_urban rail rail_electric rail_fast ship"/>
    <edge id="-51260154#2" from="159936180" to="94267986" priority="11" type="highway.secondary" numLanes="1" speed="8.33" shape="360.03,522.92 384.69,547.60 392.39,555.32" disallow="tram rail_urban rail rail_electric rail_fast ship"/>
    <edge id="-51260154#3" from="cluster_159894355_1928784695" to="159936180" priority="11" type="highway.secondary" numLanes="1" speed="8.33" shape="314.65,477.76 321.64,484.71 360.03,522.92" disallow="tram rail_urban rail rail_electric rail_fast ship"/>
    <edge id="-558558728#0" from="174026196" to="5387166536" priority="3" type="highway.residential" numLanes="1" speed="13.89" disallow="tram rail_urban rail rail_electric rail_fast ship"/>
    <edge id="-558558728#1" from="5387166534" to="174026196" priority="3" type="highway.residential" numLanes="1" speed="13.89" disallow="tram rail_urban rail rail_electric rail_fast ship"/>
    <edge id="-617646465#0" from="116147982" to="470171" priority="10" type="highway.tertiary" numLanes="1" speed="13.89" disallow="tram rail_urban rail rail_electric rail_fast ship"/>
    <edge id="-617646465#1" from="116147905" to="116147982" priority="10" type="highway.tertiary" numLanes="1" speed="13.89" disallow="tram rail_urban rail rail_electric rail_fast ship"/>
    <edge id="-617646466" from="470172" to="174026196" priority="10" type="highway.tertiary" numLanes="1" speed="13.89" shape="698.46,462.46 685.40,449.84 609.97,371.62 601.16,362.53" disallow="tram rail_urban rail rail_electric rail_fast ship"/>
    <edge id="-68904235#0" from="116147961" to="470171" priority="10" type="highway.tertiary" numLanes="1" speed="13.89" disallow="tram rail_urban rail rail_electric rail_fast ship"/>
    <edge id="-68904235#2" from="49803905" to="116147961" priority="10" type="highway.tertiary" numLanes="1" speed="13.89" shape="1053.73,823.89 1042.17,812.08 1023.38,792.22 980.80,749.24 920.49,687.74 912.41,679.43" disallow="tram rail_urban rail rail_electric rail_fast ship"/>
    <edge id="-68904237" from="262314301" to="49803905" priority="10" type="highway.tertiary" numLanes="2" speed="13.89" shape="924.84,951.27 1022.25,854.56 1033.17,843.63 1042.94,834.32 1053.73,823.89" disallow="tram rail_urban rail rail_electric rail_fast ship"/>
    <edge id="-68904246#1" from="259010103" to="262314301" priority="10" type="highway.tertiary" numLanes="1" speed="13.89" shape="903.79,969.32 914.89,960.96 924.84,951.27" disallow="tram rail_urban rail rail_electric rail_fast ship"/>
    <edge id="-690061785#1" from="158835639" to="6473992906" priority="3" type="highway.residential" numLanes="1" speed="13.89" shape="318.54,917.30 312.86,911.57 286.78,885.24" disallow="tram rail_urban rail rail_electric rail_fast ship"/>
    <edge id="-690061785#3" from="7107304058" to="158835639" priority="3" type="highway.residential" numLanes="1" speed="13.89" shape="348.21,947.33 324.59,923.42 318.54,917.30" disallow="tram rail_urban rail rail_electric rail_fast ship"/>
    <edge id="-690336568#0" from="6473991562" to="6473991582" priority="3" type="highway.residential" numLanes="1" speed="13.89" shape="287.28,877.51 287.63,878.89 288.02,880.18 288.43,881.31 288.84,882.19 289.76,883.49 290.61,884.44 291.34,885.20 313.55,907.84 309.15,912.43 285.71,888.70 284.29,887.78 282.81,887.06 281.60,886.52 279.84,885.95 278.57,885.61 277.22,885.40 275.95,885.27 274.82,885.28 274.69,886.97 273.26,886.91 271.98,887.04 270.27,887.36 268.64,887.61 267.10,888.06 264.42,888.94 276.85,877.49" disallow="tram rail_urban rail rail_electric rail_fast ship"/>
    <edge id="-690336568#1" from="6473991582" to="6473991562" priority="3" type="highway.residential" numLanes="1" speed="13.89" shape="276.85,877.49 277.20,878.12 277.73,878.58 278.38,878.84 279.03,878.88 279.65,878.71 280.19,878.34 280.59,877.84 280.81,877.24 280.84,876.60 280.67,875.98 280.31,875.45 279.80,875.06 279.20,874.83 290.58,863.44 289.71,865.94 289.09,867.61 288.58,869.22 288.33,870.37 288.27,871.59 288.31,872.59 288.55,873.58 286.60,873.87 286.73,874.70 287.00,876.15 287.28,877.51" disallow="tram rail_urban rail rail_electric rail_fast ship"/>
    <edge id="-8058379#1" from="25287818" to="244455594" priority="3" type="highway.residential" numLanes="1" speed="13.89" shape="976.65,294.98 931.37,344.48 927.23,349.01 917.74,359.17" disallow="tram rail_urban rail rail_electric rail_fast ship"/>
    <edge id="-8058379#2" from="25287819" to="25287818" priority="3" type="highway.residential" numLanes="1" speed="13.89" shape="1022.00,238.43 1019.45,246.16 983.90,286.22 976.65,294.98" disallow="tram rail_urban rail rail_electric rail_fast ship"/>
    <edge id="-83591806#3" from="3121926071" to="2319542775" priority="10" type="highway.tertiary" numLanes="1" speed="8.33" shape="523.18,283.21 515.96,275.90 508.29,268.01 460.03,219.43 397.64,156.20 394.12,152.46 380.95,138.91 363.23,121.16 329.02,85.59 324.79,81.10 315.58,71.63 278.98,33.63 262.12,16.12 257.55,11.38 246.03,0.00" disallow="tram rail_urban rail rail_electric rail_fast ship"/>
    <edge id="-84867916#1" from="21378256" to="368272" priority="11" type="highway.secondary" numLanes="2" speed="13.89" shape="779.61,952.80 792.53,965.90 807.90,981.47 810.96,984.58 816.78,990.47 826.37,1000.19" disallow="tram rail_urban rail rail_electric rail_fast ship"/>
    <edge id="-84867916#6" from="654070275" to="21378256" priority="11" type="highway.secondary" numLanes="2" speed="13.89" shape="690.96,862.99 708.04,880.19 727.93,900.45 767.11,940.15 769.04,942.09 779.61,952.80" disallow="tram rail_urban rail rail_electric rail_fast ship"/>
    <edge id="-879720881#1" from="470173" to="21378259" priority="11" type="highway.secondary" numLanes="1" speed="13.89" shape="490.64,660.04 492.07,661.49 502.23,671.79 524.83,694.68 533.82,703.80" disallow="tram rail_urban rail rail_electric rail_fast ship"/>
    <edge id="-879720882#4" from="21378259" to="654070275" priority="11" type="highway.secondary" numLanes="1" speed="13.89" shape="533.82,703.80 540.81,710.87 545.16,715.28 570.81,741.27 585.54,756.18 605.14,776.05 690.96,862.99" disallow="tram rail_urban rail rail_electric rail_fast ship"/>
    <edge id="-934218600#10" from="94266791" to="470172" priority="11" type="highway.secondary" numLanes="1" speed="13.89" shape="573.53,586.70 578.45,581.92 686.74,474.37 693.97,467.01 698.46,462.46" disallow="tram rail_urban rail rail_electric rail_fast ship"/>
    <edge id="-934218600#11" from="470173" to="94266791" priority="11" type="highway.secondary" numLanes="1" speed="13.89" shape="490.64,660.04 513.65,646.08 573.53,586.70" disallow="tram rail_urban rail rail_electric rail_fast ship"/>
    <edge id="-934218600#2" from="94260214" to="94261495" priority="11" type="highway.secondary" numLanes="1" speed="13.89" shape="871.76,291.71 886.47,277.10 947.78,216.54 950.75,213.27 957.94,206.03 965.53,198.77 969.34,195.16 1027.84,138.98 1040.25,127.09" disallow="tram rail_urban rail rail_electric rail_fast ship"/>
    <edge id="-934218600#3" from="174032471" to="94260214" priority="11" type="highway.secondary" numLanes="1" speed="13.89" shape="847.81,314.63 858.24,304.58 871.76,291.71" disallow="tram rail_urban rail rail_electric rail_fast ship"/>
    <edge id="-934218600#5" from="94270669" to="174032471" priority="11" type="highway.secondary" numLanes="1" speed="13.89" shape="753.91,407.82 784.75,377.68 847.81,314.63" disallow="tram rail_urban rail rail_electric rail_fast ship"/>
    <edge id="-934218600#8" from="470172" to="94270669" priority="11" type="highway.secondary" numLanes="1" speed="13.89" shape="698.46,462.46 704.31,456.51 708.63,452.12 753.91,407.82" disallow="tram rail_urban rail rail_electric rail_fast ship"/>
    <edge id="105940431#0" from="470173" to="94267106" priority="11" type="highway.secondary" numLanes="1" speed="13.89" shape="490.64,660.04 481.03,666.39 463.97,683.24 449.37,697.02 443.07,702.58" disallow="tram rail_urban rail rail_electric rail_fast ship"/>
    <edge id="105940431#3" from="94267106" to="cluster_249578857_94267505" priority="11" type="highway.secondary" numLanes="1" speed="13.89" shape="443.07,702.58 438.73,707.10 378.31,770.17 376.48,771.98" disallow="tram rail_urban rail rail_electric rail_fast ship"/>
    <edge id="105940431#6" from="cluster_249578857_94267505" to="158834270" priority="11" type="highway.secondary" numLanes="1" speed="13.89" shape="365.58,782.66 360.73,787.41 305.45,841.63" disallow="tram rail_urban rail rail_electric rail_fast ship"/>
    <edge id="105940431#8" from="158834270" to="21346784" priority="11" type="highway.secondary" numLanes="1" speed="13.89" shape="305.45,841.63 295.61,851.28 286.31,860.39 282.18,864.44 268.92,877.45 260.75,885.46 246.35,899.58 233.94,911.76 227.45,918.11 202.84,942.25 197.45,947.53 179.81,964.83 129.07,1014.27 126.43,1016.86 125.13,1018.46 122.69,1020.85 116.35,1027.07" disallow="tram rail_urban rail rail_electric rail_fast ship"/>
    <edge id="10664990#0" from="470173" to="94266440" priority="3" type="highway.residential" numLanes="1" speed="13.89" shape="490.64,660.04 492.04,628.78 502.90,533.23 504.00,517.89" spreadType="center" disallow="tram rail_urban rail rail_electric rail_fast ship"/>
    <edge id="10664990#1" from="94266440" to="174028241" priority="3" type="highway.residential" numLanes="1" speed="13.89" shape="504.00,517.89 517.85,414.94 518.42,409.05 524.10,368.95 527.47,347.96" spreadType="center" disallow="tram rail_urban rail rail_electric rail_fast ship"/>
    <edge id="10664990#4" from="174028241" to="94259118" priority="3" type="highway.residential" numLanes="1" speed="13.89" shape="527.47,347.96 530.51,324.88 530.41,313.31" spreadType="center" disallow="tram rail_urban rail rail_electric rail_fast ship"/>
    <edge id="10665066#0" from="8384493811" to="94270578" priority="10" type="highway.tertiary" numLanes="2" speed="13.89" shape="802.43,190.24 806.26,195.91 807.89,198.37 810.83,202.83" disallow="tram rail_urban rail rail_electric rail_fast ship"/>
    <edge id="10665066#2" from="94270578" to="94260214" priority="10" type="highway.tertiary" numLanes="2" speed="13.89" shape="810.83,202.83 851.17,261.60 861.55,276.74 871.76,291.71" disallow="tram rail_urban rail rail_electric rail_fast ship"/>
    <edge id="10665122" from="25287818" to="94260793" priority="3" type="highway.residential" numLanes="1" speed="13.89" shape="976.65,294.98 982.51,300.18 1051.55,368.07 1067.99,384.18 1072.78,388.86 1076.87,392.86" disallow="tram rail_urban rail rail_electric rail_fast ship"/>
    <edge id="10665366" from="94266789" to="94266440" priority="3" type="highway.residential" numLanes="1" speed="13.89" shape="421.87,585.24 430.85,576.44 490.33,518.17 504.00,517.89" spreadType="center" disallow="tram rail_urban rail rail_electric rail_fast ship"/>
    <edge id="10665379#0" from="cluster_249578857_94267505" to="94267653" priority="3" type="highway.residential" numLanes="1" speed="13.89" shape="365.58,782.66 371.15,788.31 403.74,821.29 409.73,827.36" spreadType="center" disallow="tram rail_urban rail rail_electric rail_fast ship"/>
    <edge id="10665392" from="94267105" to="94267807" priority="3" type="highway.residential" numLanes="1" speed="8.33" shape="335.55,595.64 329.60,602.44 238.80,706.39 235.85,709.63" spreadType="center" disallow="tram rail_urban rail rail_electric rail_fast ship"/>
    <edge id="10665499" from="94270277" to="94270239" priority="3" type="highway.residential" numLanes="1" speed="8.33" shape="324.20,385.61 319.86,379.93 217.53,263.42 214.36,259.80" spreadType="center" disallow="tram rail_urban rail rail_electric rail_fast ship"/>
    <edge id="110528888#0" from="65311769" to="470171" priority="3" type="highway.residential" numLanes="1" speed="13.89" shape="938.73,645.81 923.62,644.28 907.83,642.69 898.07,641.70 873.19,639.19" disallow="tram rail_urban rail rail_electric rail_fast ship"/>
    <edge id="12716230#0" from="116147905" to="116147990" priority="3" type="highway.residential" numLanes="2" speed="13.89" shape="808.16,572.59 817.63,562.28 829.50,553.50 841.91,547.53" spreadType="center" disallow="tram rail_urban rail rail_electric rail_fast ship"/>
    <edge id="12716230#3" from="116147990" to="116147966" priority="3" type="highway.residential" numLanes="2" speed="13.89" shape="841.91,547.53 852.15,544.51 869.23,542.75 883.77,544.32 889.78,545.82 901.15,550.18 912.95,557.21 922.92,565.89" spreadType="center" disallow="tram rail_urban rail rail_electric rail_fast ship"/>
    <edge id="12716230#6" from="116147966" to="65311769" priority="3" type="highway.residential" numLanes="2" speed="13.89" shape="922.92,565.89 930.77,575.50 939.24,591.75 943.44,608.82 943.84,623.25 941.76,636.42 938.73,645.81" spreadType="center" disallow="tram rail_urban rail rail_electric rail_fast ship"/>
    <edge id="12716230#9" from="65311769" to="116147961" priority="3" type="highway.residential" numLanes="2" speed="13.89" shape="938.73,645.81 925.06,668.07 912.41,679.43" spreadType="center" disallow="tram rail_urban rail rail_electric rail_fast ship"/>
    <edge id="12716239#0" from="116147990" to="116147982" priority="3" type="highway.residential" numLanes="1" speed="13.89" shape="841.91,547.53 843.11,558.47 846.20,592.51 848.12,614.48" disallow="tram rail_urban rail rail_electric rail_fast ship"/>
    <edge id="13861972#0" from="230346486" to="cluster_130096418_130096486_470170" priority="3" type="highway.residential" numLanes="1" speed="8.33" shape="1258.75,250.92 1252.73,256.89 1247.71,261.86 1242.37,267.16 1235.57,273.90 1200.26,308.92 1103.85,404.53 1090.37,417.91 1023.83,483.90 1011.25,496.38" spreadType="center" disallow="tram rail_urban rail rail_electric rail_fast ship"/>
    <edge id="15220512#0" from="3278371062" to="3121926075" priority="11" type="highway.secondary" numLanes="1" speed="8.33" shape="121.71,206.06 135.31,210.07 139.75,211.57 160.44,215.84 235.39,231.31 247.29,233.76 257.94,235.82 267.86,237.51 277.13,239.49 396.02,264.64 476.32,281.05 489.22,283.29 493.63,284.05 498.22,284.85 509.44,286.54 520.40,288.01" disallow="tram rail_urban rail rail_electric rail_fast ship"/>
    <edge id="15807867#0" from="94267653" to="158835639" priority="3" type="highway.residential" numLanes="1" speed="8.33" shape="409.73,827.36 404.39,832.62 326.13,909.80 318.54,917.30" spreadType="center" disallow="tram rail_urban rail rail_electric rail_fast ship"/>
    <edge id="15807867#2" from="158835639" to="21378258" priority="3" type="highway.residential" numLanes="1" speed="8.33" shape="318.54,917.30 311.24,924.52 253.53,982.70 247.57,988.24 242.90,993.01 195.32,1039.24 186.61,1047.85 168.06,1067.06 161.88,1073.51" spreadType="center" disallow="tram rail_urban rail rail_electric rail_fast ship"/>
    <edge id="15912237#0" from="94267105" to="159935928" priority="3" type="highway.residential" numLanes="1" speed="8.33" shape="335.55,595.64 331.07,591.67 327.05,587.65 309.53,583.39" spreadType="center" disallow="tram rail_urban rail rail_electric rail_fast ship"/>
    <edge id="15912237#1" from="159935928" to="159894354" priority="3" type="highway.residential" numLanes="1" speed="8.33" shape="309.53,583.39 283.63,577.11 276.88,575.47 238.90,566.26 230.82,564.30" spreadType="center" disallow="tram rail_urban rail rail_electric rail_fast ship"/>
    <edge id="15915792" from="159935928" to="159936180" priority="3" type="highway.residential" numLanes="1" speed="8.33" shape="309.53,583.39 313.75,578.33 352.70,531.69 360.03,522.92" spreadType="center" disallow="tram rail_urban rail rail_electric rail_fast ship"/>
    <edge id="16809262#0" from="94267106" to="94267985" priority="3" type="highway.residential" numLanes="1" speed="8.33" shape="443.07,702.58 436.19,695.34 374.10,633.80 351.59,611.52 344.55,604.55" spreadType="center" disallow="tram rail_urban rail rail_electric rail_fast ship"/>
    <edge id="16809262#3" from="94267985" to="94267105" priority="3" type="highway.residential" numLanes="1" speed="8.33" spreadType="center" disallow="tram rail_urban rail rail_electric rail_fast ship"/>
    <edge id="16809466" from="94267985" to="94267986" priority="3" type="highway.residential" numLanes="1" speed="8.33" shape="344.55,604.55 348.91,600.05 384.15,563.80 392.39,555.32" disallow="tram rail_urban rail rail_electric rail_fast ship"/>
    <edge id="16809868" from="94266440" to="94266791" priority="3" type="highway.residential" numLanes="1" speed="13.89" shape="504.00,517.89 513.08,525.35 565.61,578.40 573.53,586.70" disallow="tram rail_urban rail rail_electric rail_fast ship"/>
    <edge id="16810145" from="94266440" to="94267986" priority="3" type="highway.residential" numLanes="1" speed="13.89" shape="504.00,517.89 492.68,505.80 468.45,480.60 400.75,547.10 392.39,555.32" spreadType="center" disallow="tram rail_urban rail rail_electric rail_fast ship"/>
    <edge id="16811373" from="3121926071" to="3731959193" priority="11" type="highway.secondary" numLanes="1" speed="13.89" shape="523.18,283.21 528.71,278.53 535.82,276.25" spreadType="center" disallow="tram rail_urban rail rail_electric rail_fast ship"/>
    <edge id="16811420" from="94259118" to="3121926076" priority="11" type="highway.secondary" numLanes="1" speed="13.89" shape="530.41,313.31 522.70,297.93 519.42,291.36" spreadType="center" disallow="tram rail_urban rail rail_electric rail_fast ship"/>
    <edge id="16812304#0" from="174032471" to="174032004" priority="3" type="highway.residential" numLanes="1" speed="13.89" shape="847.81,314.63 832.43,306.42 780.58,279.78 774.51,276.63" spreadType="center" disallow="tram rail_urban rail rail_electric rail_fast ship"/>
    <edge id="16812304#1" from="174032004" to="94270578" priority="3" type="highway.residential" numLanes="1" speed="13.89" shape="774.51,276.63 777.50,270.56 801.53,221.71 805.34,213.97 810.83,202.83" spreadType="center" disallow="tram rail_urban rail rail_electric rail_fast ship"/>
    <edge id="16812311#0" from="94270669" to="174032004" priority="3" type="highway.residential" numLanes="1" speed="13.89" shape="753.91,407.82 742.30,395.63 724.21,375.79 731.76,360.91 748.52,327.87 771.44,282.72 774.51,276.63" spreadType="center" disallow="tram rail_urban rail rail_electric rail_fast ship"/>
    <edge id="16813370#0" from="174042261" to="470171" priority="3" type="highway.residential" numLanes="2" speed="13.89" shape="880.87,605.53 877.62,621.34 873.19,639.19" spreadType="center" disallow="tram rail_urban rail rail_electric rail_fast ship"/>
    <edge id="16813387#0" from="116147982" to="174042261" priority="3" type="highway.residential" numLanes="2" speed="13.89" shape="848.12,614.48 865.99,609.60 880.87,605.53" spreadType="center" disallow="tram rail_urban rail rail_electric rail_fast ship"/>
    <edge id="182518079#0" from="cluster_159894355_1928784695" to="21346788" priority="11" type="highway.secondary" numLanes="2" speed="13.89" shape="304.79,467.52 285.71,450.83 278.04,444.12 272.82,439.56" spreadType="center" disallow="tram rail_urban rail rail_electric rail_fast ship"/>
    <edge id="19712799" from="94267653" to="6483852059" priority="3" type="highway.residential" numLanes="1" speed="13.89" shape="409.73,827.36 415.78,833.41 439.80,857.44" disallow="tram rail_urban rail rail_electric rail_fast ship"/>
    <edge id="204272059" from="1928784676" to="cluster_159894355_1928784695" priority="11" type="highway.secondary" numLanes="2" speed="13.89" shape="283.80,434.22 289.98,444.02 304.79,467.52" spreadType="center" disallow="tram rail_urban rail rail_electric rail_fast ship"/>
    <edge id="22772276#0" from="3731959193" to="258311984" priority="10" type="highway.tertiary" numLanes="1" speed="13.89" shape="535.82,276.25 536.88,265.97 538.53,253.68 538.84,249.86 543.65,212.70 543.89,211.27 550.98,149.80 552.51,136.68 555.20,115.93 556.27,107.03 560.82,69.26 563.41,47.72 567.02,22.32 568.47,12.54" disallow="tram rail_urban rail rail_electric rail_fast ship"/>
    <edge id="24226774" from="262314301" to="36489622" priority="10" type="highway.tertiary" numLanes="1" speed="13.89" shape="924.84,951.27 927.49,964.58 934.50,978.76" spreadType="center" disallow="tram rail_urban rail rail_electric rail_fast ship"/>
    <edge id="25463841#0" from="3121926074" to="130095414" priority="11" type="highway.secondary" numLanes="1" speed="13.89" shape="546.08,277.98 557.16,272.93 572.22,266.53 633.90,238.04 640.78,234.90 677.32,218.45 729.79,194.27 731.92,193.29 777.48,172.68 800.05,162.13 849.69,138.97 853.65,137.12 865.33,131.67" spreadType="center" disallow="tram rail_urban rail rail_electric rail_fast ship"/>
    <edge id="25463859#0" from="21346780" to="94270277" priority="11" type="highway.secondary" numLanes="1" speed="13.89" shape="259.53,416.84 275.59,409.09 290.56,401.86 317.21,388.99 324.20,385.61" spreadType="center" disallow="tram rail_urban rail rail_electric rail_fast ship"/>
    <edge id="25463859#1" from="94270277" to="3121926076" priority="11" type="highway.secondary" numLanes="1" speed="13.89" shape="324.20,385.61 409.80,344.28 504.30,298.56 508.27,296.63 519.42,291.36" spreadType="center" disallow="tram rail_urban rail rail_electric rail_fast ship"/>
    <edge id="25463860#1" from="311060931" to="1928784676" priority="11" type="highway.secondary" numLanes="1" speed="13.89" shape="365.13,394.40 300.46,426.06 295.63,428.43 283.80,434.22" spreadType="center" disallow="tram rail_urban rail rail_electric rail_fast ship"/>
    <edge id="264881744#0" from="116147905" to="470172" priority="10" type="highway.tertiary" numLanes="2" speed="13.89" shape="808.16,572.59 800.16,563.78 711.22,475.15 705.71,469.67 698.46,462.46" disallow="tram rail_urban rail rail_electric rail_fast ship"/>